<?xml version="1.0" encoding="UTF-8"?>

<!-- generated on 2024-01-04 02:13:15 by Eclipse SUMO netgenerate Version 1.19.0
<configuration xmlns:xsi="http://www.w3.org/2001/XMLSchema-instance" xsi:noNamespaceSchemaLocation="http://sumo.dlr.de/xsd/netgenerateConfiguration.xsd">

    <grid_network>
        <grid value="false"/>
    </grid_network>

    <spider_network>
        <spider value="false"/>
    </spider_network>

    <random_network>
        <rand value="true"/>
        <rand.iterations value="5"/>
        <rand.grid value="true"/>
    </random_network>

    <output>
        <output-file value="/home/yawcz/Documents/nrp/assets/random.net.xml"/>
    </output>

</configuration>
-->

<net version="1.16" junctionCornerDetail="5" limitTurnSpeed="5.50" xmlns:xsi="http://www.w3.org/2001/XMLSchema-instance" xsi:noNamespaceSchemaLocation="http://sumo.dlr.de/xsd/net_file.xsd">

    <location netOffset="100.00,200.00" convBoundary="0.00,0.00,200.00,400.00" origBoundary="-100.00,-200.00,100.00,200.00" projParameter="!"/>

    <edge id=":1_0" function="internal">
        <lane id=":1_0_0" index="0" speed="6.51" length="9.03" shape="98.40,207.20 98.05,204.75 97.00,203.00 95.25,201.95 92.80,201.60"/>
    </edge>
    <edge id=":1_1" function="internal">
        <lane id=":1_1_0" index="0" speed="13.89" length="14.40" shape="98.40,207.20 98.40,192.80"/>
    </edge>
    <edge id=":1_2" function="internal">
        <lane id=":1_2_0" index="0" speed="8.00" length="4.07" shape="98.40,207.20 98.95,203.35 99.04,203.20"/>
    </edge>
    <edge id=":1_3" function="internal">
        <lane id=":1_3_0" index="0" speed="3.65" length="1.44" shape="98.40,207.20 99.20,206.00"/>
    </edge>
    <edge id=":1_16" function="internal">
        <lane id=":1_16_0" index="0" speed="8.00" length="10.13" shape="99.04,203.20 100.60,200.60 103.35,198.95 107.20,198.40"/>
    </edge>
    <edge id=":1_17" function="internal">
        <lane id=":1_17_0" index="0" speed="3.65" length="3.23" shape="99.20,206.00 100.00,205.60 100.80,206.00 101.60,207.20"/>
    </edge>
    <edge id=":1_4" function="internal">
        <lane id=":1_4_0" index="0" speed="6.51" length="9.03" shape="107.20,201.60 104.75,201.95 103.00,203.00 101.95,204.75 101.60,207.20"/>
    </edge>
    <edge id=":1_5" function="internal">
        <lane id=":1_5_0" index="0" speed="13.89" length="14.40" shape="107.20,201.60 92.80,201.60"/>
    </edge>
    <edge id=":1_6" function="internal">
        <lane id=":1_6_0" index="0" speed="8.00" length="14.19" shape="107.20,201.60 103.35,201.05 100.60,199.40 98.95,196.65 98.40,192.80"/>
    </edge>
    <edge id=":1_7" function="internal">
        <lane id=":1_7_0" index="0" speed="3.65" length="4.67" shape="107.20,201.60 106.00,200.80 105.60,200.00 106.00,199.20 107.20,198.40"/>
    </edge>
    <edge id=":1_8" function="internal">
        <lane id=":1_8_0" index="0" speed="6.51" length="9.03" shape="101.60,192.80 101.95,195.25 103.00,197.00 104.75,198.05 107.20,198.40"/>
    </edge>
    <edge id=":1_9" function="internal">
        <lane id=":1_9_0" index="0" speed="13.89" length="14.40" shape="101.60,192.80 101.60,207.20"/>
    </edge>
    <edge id=":1_10" function="internal">
        <lane id=":1_10_0" index="0" speed="8.00" length="4.07" shape="101.60,192.80 101.05,196.65 100.96,196.80"/>
    </edge>
    <edge id=":1_11" function="internal">
        <lane id=":1_11_0" index="0" speed="3.65" length="1.44" shape="101.60,192.80 100.80,194.00"/>
    </edge>
    <edge id=":1_18" function="internal">
        <lane id=":1_18_0" index="0" speed="8.00" length="10.13" shape="100.96,196.80 99.40,199.40 96.65,201.05 92.80,201.60"/>
    </edge>
    <edge id=":1_19" function="internal">
        <lane id=":1_19_0" index="0" speed="3.65" length="3.23" shape="100.80,194.00 100.00,194.40 99.20,194.00 98.40,192.80"/>
    </edge>
    <edge id=":1_12" function="internal">
        <lane id=":1_12_0" index="0" speed="6.51" length="9.03" shape="92.80,198.40 95.25,198.05 97.00,197.00 98.05,195.25 98.40,192.80"/>
    </edge>
    <edge id=":1_13" function="internal">
        <lane id=":1_13_0" index="0" speed="13.89" length="14.40" shape="92.80,198.40 107.20,198.40"/>
    </edge>
    <edge id=":1_14" function="internal">
        <lane id=":1_14_0" index="0" speed="8.00" length="14.19" shape="92.80,198.40 96.65,198.95 99.40,200.60 101.05,203.35 101.60,207.20"/>
    </edge>
    <edge id=":1_15" function="internal">
        <lane id=":1_15_0" index="0" speed="3.65" length="4.67" shape="92.80,198.40 94.00,199.20 94.40,200.00 94.00,200.80 92.80,201.60"/>
    </edge>
    <edge id=":10_0" function="internal">
        <lane id=":10_0_0" index="0" speed="3.65" length="4.67" shape="0.00,201.60 -1.20,200.80 -1.60,200.00 -1.20,199.20 0.00,198.40"/>
    </edge>
    <edge id=":14_0" function="internal">
        <lane id=":14_0_0" index="0" speed="3.65" length="4.67" shape="101.60,400.00 100.80,401.20 100.00,401.60 99.20,401.20 98.40,400.00"/>
    </edge>
    <edge id=":2_0" function="internal">
        <lane id=":2_0_0" index="0" speed="3.65" length="4.67" shape="98.40,0.00 99.20,-1.20 100.00,-1.60 100.80,-1.20 101.60,-0.00"/>
    </edge>
    <edge id=":4_0" function="internal">
        <lane id=":4_0_0" index="0" speed="3.65" length="4.67" shape="200.00,198.40 201.20,199.20 201.60,200.00 201.20,200.80 200.00,201.60"/>
    </edge>

    <edge id="-11" from="10" to="1" priority="-1">
        <lane id="-11_0" index="0" speed="13.89" length="92.80" shape="0.00,198.40 92.80,198.40"/>
    </edge>
    <edge id="-15" from="14" to="1" priority="-1">
        <lane id="-15_0" index="0" speed="13.89" length="192.80" shape="98.40,400.00 98.40,207.20"/>
    </edge>
    <edge id="-3" from="2" to="1" priority="-1">
        <lane id="-3_0" index="0" speed="13.89" length="192.80" shape="101.60,-0.00 101.60,192.80"/>
    </edge>
    <edge id="-5" from="4" to="1" priority="-1">
        <lane id="-5_0" index="0" speed="13.89" length="92.80" shape="200.00,201.60 107.20,201.60"/>
    </edge>
    <edge id="11" from="1" to="10" priority="-1">
        <lane id="11_0" index="0" speed="13.89" length="92.80" shape="92.80,201.60 0.00,201.60"/>
    </edge>
    <edge id="15" from="1" to="14" priority="-1">
        <lane id="15_0" index="0" speed="13.89" length="192.80" shape="101.60,207.20 101.60,400.00"/>
    </edge>
    <edge id="3" from="1" to="2" priority="-1">
        <lane id="3_0" index="0" speed="13.89" length="192.80" shape="98.40,192.80 98.40,0.00"/>
    </edge>
    <edge id="5" from="1" to="4" priority="-1">
        <lane id="5_0" index="0" speed="13.89" length="92.80" shape="107.20,198.40 200.00,198.40"/>
    </edge>

    <junction id="1" type="priority" x="100.00" y="200.00" incLanes="-15_0 -5_0 -3_0 -11_0" intLanes=":1_0_0 :1_1_0 :1_16_0 :1_17_0 :1_4_0 :1_5_0 :1_6_0 :1_7_0 :1_8_0 :1_9_0 :1_18_0 :1_19_0 :1_12_0 :1_13_0 :1_14_0 :1_15_0" shape="96.80,207.20 103.20,207.20 103.64,204.98 104.20,204.20 104.98,203.64 105.98,203.31 107.20,203.20 107.20,196.80 104.98,196.36 104.20,195.80 103.64,195.02 103.31,194.02 103.20,192.80 96.80,192.80 96.36,195.02 95.80,195.80 95.02,196.36 94.02,196.69 92.80,196.80 92.80,203.20 95.02,203.64 95.80,204.20 96.36,204.98 96.69,205.98">
        <request index="0"  response="0000000000000000" foes="1000010000100000" cont="0"/>
        <request index="1"  response="0000000000000000" foes="0111110001100000" cont="0"/>
        <request index="2"  response="0000011100000000" foes="0110011111100000" cont="1"/>
        <request index="3"  response="0100001000010000" foes="0100001000010000" cont="1"/>
        <request index="4"  response="0000001000000000" foes="0100001000001000" cont="0"/>
        <request index="5"  response="0000011000000111" foes="1100011000000111" cont="0"/>
        <request index="6"  response="0011011000000110" foes="0111111000000110" cont="0"/>
        <request index="7"  response="0010000100000100" foes="0010000100000100" cont="0"/>
        <request index="8"  response="0000000000000000" foes="0010000010000100" cont="0"/>
        <request index="9"  response="0000000000000000" foes="0110000001111100" cont="0"/>
        <request index="10" response="0000000000000011" foes="1110000001100111" cont="1"/>
        <request index="11" response="0001000001000010" foes="0001000001000010" cont="1"/>
        <request index="12" response="0000000000000010" foes="0000100001000010" cont="0"/>
        <request index="13" response="0000011100000110" foes="0000011111000110" cont="0"/>
        <request index="14" response="0000011001110110" foes="0000011001111110" cont="0"/>
        <request index="15" response="0000010000100001" foes="0000010000100001" cont="0"/>
    </junction>
    <junction id="10" type="priority" x="0.00" y="200.00" incLanes="11_0" intLanes=":10_0_0" shape="0.00,200.00 0.00,203.20 0.00,200.00">
        <request index="0" response="0" foes="0" cont="0"/>
    </junction>
    <junction id="14" type="priority" x="100.00" y="400.00" incLanes="15_0" intLanes=":14_0_0" shape="100.00,400.00 103.20,400.00 100.00,400.00">
        <request index="0" response="0" foes="0" cont="0"/>
    </junction>
    <junction id="2" type="priority" x="100.00" y="0.00" incLanes="3_0" intLanes=":2_0_0" shape="100.00,0.00 96.80,0.00 100.00,0.00">
        <request index="0" response="0" foes="0" cont="0"/>
    </junction>
    <junction id="4" type="priority" x="200.00" y="200.00" incLanes="5_0" intLanes=":4_0_0" shape="200.00,200.00 200.00,196.80 200.00,200.00">
        <request index="0" response="0" foes="0" cont="0"/>
    </junction>

    <junction id=":1_16_0" type="internal" x="99.04" y="203.20" incLanes=":1_2_0 -3_0" intLanes=":1_5_0 :1_6_0 :1_7_0 :1_8_0 :1_9_0 :1_13_0 :1_14_0"/>
    <junction id=":1_17_0" type="internal" x="99.20" y="206.00" incLanes=":1_3_0 -11_0 -3_0 -5_0" intLanes=":1_4_0 :1_9_0 :1_14_0"/>
    <junction id=":1_18_0" type="internal" x="100.96" y="196.80" incLanes=":1_10_0 -15_0" intLanes=":1_0_0 :1_1_0 :1_5_0 :1_6_0 :1_13_0 :1_14_0 :1_15_0"/>
    <junction id=":1_19_0" type="internal" x="100.80" y="194.00" incLanes=":1_11_0 -11_0 -15_0 -5_0" intLanes=":1_1_0 :1_6_0 :1_12_0"/>

    <connection from="-11" to="3" fromLane="0" toLane="0" via=":1_12_0" dir="r" state="m"/>
    <connection from="-11" to="5" fromLane="0" toLane="0" via=":1_13_0" dir="s" state="m"/>
    <connection from="-11" to="15" fromLane="0" toLane="0" via=":1_14_0" dir="l" state="m"/>
    <connection from="-11" to="11" fromLane="0" toLane="0" via=":1_15_0" dir="t" state="m"/>
    <connection from="-15" to="11" fromLane="0" toLane="0" via=":1_0_0" dir="r" state="M"/>
    <connection from="-15" to="3" fromLane="0" toLane="0" via=":1_1_0" dir="s" state="M"/>
    <connection from="-15" to="5" fromLane="0" toLane="0" via=":1_2_0" dir="l" state="m"/>
    <connection from="-15" to="15" fromLane="0" toLane="0" via=":1_3_0" dir="t" state="m"/>
    <connection from="-3" to="5" fromLane="0" toLane="0" via=":1_8_0" dir="r" state="M"/>
    <connection from="-3" to="15" fromLane="0" toLane="0" via=":1_9_0" dir="s" state="M"/>
    <connection from="-3" to="11" fromLane="0" toLane="0" via=":1_10_0" dir="l" state="m"/>
    <connection from="-3" to="3" fromLane="0" toLane="0" via=":1_11_0" dir="t" state="m"/>
    <connection from="-5" to="15" fromLane="0" toLane="0" via=":1_4_0" dir="r" state="m"/>
    <connection from="-5" to="11" fromLane="0" toLane="0" via=":1_5_0" dir="s" state="m"/>
    <connection from="-5" to="3" fromLane="0" toLane="0" via=":1_6_0" dir="l" state="m"/>
    <connection from="-5" to="5" fromLane="0" toLane="0" via=":1_7_0" dir="t" state="m"/>
    <connection from="11" to="-11" fromLane="0" toLane="0" via=":10_0_0" dir="t" state="M"/>
    <connection from="15" to="-15" fromLane="0" toLane="0" via=":14_0_0" dir="t" state="M"/>
    <connection from="3" to="-3" fromLane="0" toLane="0" via=":2_0_0" dir="t" state="M"/>
    <connection from="5" to="-5" fromLane="0" toLane="0" via=":4_0_0" dir="t" state="M"/>

    <connection from=":1_0" to="11" fromLane="0" toLane="0" dir="r" state="M"/>
    <connection from=":1_1" to="3" fromLane="0" toLane="0" dir="s" state="M"/>
    <connection from=":1_2" to="5" fromLane="0" toLane="0" via=":1_16_0" dir="l" state="m"/>
    <connection from=":1_16" to="5" fromLane="0" toLane="0" dir="l" state="M"/>
    <connection from=":1_3" to="15" fromLane="0" toLane="0" via=":1_17_0" dir="t" state="m"/>
    <connection from=":1_17" to="15" fromLane="0" toLane="0" dir="t" state="M"/>
    <connection from=":1_4" to="15" fromLane="0" toLane="0" dir="r" state="M"/>
    <connection from=":1_5" to="11" fromLane="0" toLane="0" dir="s" state="M"/>
    <connection from=":1_6" to="3" fromLane="0" toLane="0" dir="l" state="M"/>
    <connection from=":1_7" to="5" fromLane="0" toLane="0" dir="t" state="M"/>
    <connection from=":1_8" to="5" fromLane="0" toLane="0" dir="r" state="M"/>
    <connection from=":1_9" to="15" fromLane="0" toLane="0" dir="s" state="M"/>
    <connection from=":1_10" to="11" fromLane="0" toLane="0" via=":1_18_0" dir="l" state="m"/>
    <connection from=":1_18" to="11" fromLane="0" toLane="0" dir="l" state="M"/>
    <connection from=":1_11" to="3" fromLane="0" toLane="0" via=":1_19_0" dir="t" state="m"/>
    <connection from=":1_19" to="3" fromLane="0" toLane="0" dir="t" state="M"/>
    <connection from=":1_12" to="3" fromLane="0" toLane="0" dir="r" state="M"/>
    <connection from=":1_13" to="5" fromLane="0" toLane="0" dir="s" state="M"/>
    <connection from=":1_14" to="15" fromLane="0" toLane="0" dir="l" state="M"/>
    <connection from=":1_15" to="11" fromLane="0" toLane="0" dir="t" state="M"/>
    <connection from=":10_0" to="-11" fromLane="0" toLane="0" dir="t" state="M"/>
    <connection from=":14_0" to="-15" fromLane="0" toLane="0" dir="t" state="M"/>
    <connection from=":2_0" to="-3" fromLane="0" toLane="0" dir="t" state="M"/>
    <connection from=":4_0" to="-5" fromLane="0" toLane="0" dir="t" state="M"/>

</net>
